inputs/GSO_Base_Network/Industrial/Loads.dss
New Load.uclvl26296 conn=wye bus1=uclv26296.1.2 kV=0.240178 Vminpu=0.95 Vmaxpu=1.05 model=1 kW=7.72008 kvar=3.73900539512 Phases=2

New Load.uclvl32597 conn=wye bus1=uclv32597 kV=0.48 Vminpu=0.95 Vmaxpu=1.05 model=1 kW=99.881 kvar=48.3745761533 Phases=3

New Load.uclvl27349 conn=wye bus1=uclv27349.1.2 kV=0.240178 Vminpu=0.95 Vmaxpu=1.05 model=1 kW=13.5601 kvar=6.57129630895 Phases=2

New Load.uclvl26523 conn=wye bus1=uclv26523.1.2 kV=0.240178 Vminpu=0.95 Vmaxpu=1.05 model=1 kW=1.66002 kvar=0.800219242954 Phases=2

New Load.uclvl27345 conn=wye bus1=uclv27345.1.2 kV=0.240178 Vminpu=0.95 Vmaxpu=1.05 model=1 kW=0.870009 kvar=0.419884997277 Phases=2

New Load.uclvl14322 conn=wye bus1=uclv14322.1.2 kV=0.240178 Vminpu=0.95 Vmaxpu=1.05 model=1 kW=0.760008 kvar=0.370023806178 Phases=2

New Load.uclvl43231 conn=wye bus1=uclv43231 kV=0.48 Vminpu=0.95 Vmaxpu=1.05 model=1 kW=73.1607 kvar=35.4333442154 Phases=3

New Load.uclvl9968 conn=wye bus1=uclv9968 kV=0.48 Vminpu=0.95 Vmaxpu=1.05 model=1 kW=28.5803 kvar=13.8420710529 Phases=3

New Load.uclvl9969 conn=wye bus1=uclv9969 kV=0.48 Vminpu=0.95 Vmaxpu=1.05 model=1 kW=82.1108 kvar=39.7680754859 Phases=3

New Load.uclvl45682 conn=wye bus1=uclv45682.1.2 kV=0.240178 Vminpu=0.95 Vmaxpu=1.05 model=1 kW=2.74003 kvar=1.33015976772 Phases=2

New Load.uclvl52443 conn=wye bus1=uclv52443.1.2 kV=0.240178 Vminpu=0.95 Vmaxpu=1.05 model=1 kW=2.74003 kvar=1.33015976772 Phases=2

New Load.uclvl9962 conn=wye bus1=uclv9962 kV=0.48 Vminpu=0.95 Vmaxpu=1.05 model=1 kW=28.5803 kvar=13.8420710529 Phases=3

New Load.uclvl9963 conn=wye bus1=uclv9963 kV=0.48 Vminpu=0.95 Vmaxpu=1.05 model=1 kW=28.5803 kvar=13.8420710529 Phases=3

New Load.uclvl9960 conn=wye bus1=uclv9960 kV=0.48 Vminpu=0.95 Vmaxpu=1.05 model=1 kW=28.5803 kvar=13.8420710529 Phases=3

New Load.uclvl9961 conn=wye bus1=uclv9961 kV=0.48 Vminpu=0.95 Vmaxpu=1.05 model=1 kW=28.5803 kvar=13.8420710529 Phases=3

New Load.uclvl9966 conn=wye bus1=uclv9966 kV=0.48 Vminpu=0.95 Vmaxpu=1.05 model=1 kW=128.431 kvar=62.2019722464 Phases=3

New Load.uclvl9967 conn=wye bus1=uclv9967 kV=0.48 Vminpu=0.95 Vmaxpu=1.05 model=1 kW=28.5803 kvar=13.8420710529 Phases=3

New Load.uclvl9964 conn=wye bus1=uclv9964 kV=0.48 Vminpu=0.95 Vmaxpu=1.05 model=1 kW=28.5803 kvar=13.8420710529 Phases=3

New Load.uclvl9965 conn=wye bus1=uclv9965 kV=0.48 Vminpu=0.95 Vmaxpu=1.05 model=1 kW=28.5803 kvar=13.8420710529 Phases=3

New Load.uclvl21165 conn=wye bus1=uclv21165.1.2 kV=0.240178 Vminpu=0.95 Vmaxpu=1.05 model=1 kW=1.66002 kvar=0.800219242954 Phases=2

New Load.uclvl21164 conn=wye bus1=uclv21164.1.2 kV=0.240178 Vminpu=0.95 Vmaxpu=1.05 model=1 kW=1.66002 kvar=0.800219242954 Phases=2

New Load.uclvl21167 conn=wye bus1=uclv21167.1.2 kV=0.240178 Vminpu=0.95 Vmaxpu=1.05 model=1 kW=1.66002 kvar=0.800219242954 Phases=2

New Load.uclvl21166 conn=wye bus1=uclv21166.1.2 kV=0.240178 Vminpu=0.95 Vmaxpu=1.05 model=1 kW=1.66002 kvar=0.800219242954 Phases=2

New Load.uclvl21161 conn=wye bus1=uclv21162.1.2 kV=0.240178 Vminpu=0.95 Vmaxpu=1.05 model=1 kW=1.66002 kvar=0.800219242954 Phases=2

New Load.uclvl19339 conn=wye bus1=uclv19340.1.2 kV=0.240178 Vminpu=0.95 Vmaxpu=1.05 model=1 kW=1.66002 kvar=0.800219242954 Phases=2

New Load.uclvl21163 conn=wye bus1=uclv21163.1.2 kV=0.240178 Vminpu=0.95 Vmaxpu=1.05 model=1 kW=1.66002 kvar=0.800219242954 Phases=2

New Load.uclvl21162 conn=wye bus1=uclv21162.1.2 kV=0.240178 Vminpu=0.95 Vmaxpu=1.05 model=1 kW=1.66002 kvar=0.800219242954 Phases=2

New Load.uclvl57031 conn=wye bus1=uclv57031.1.2 kV=0.240178 Vminpu=0.95 Vmaxpu=1.05 model=1 kW=2.74003 kvar=1.33015976772 Phases=2

New Load.uclvl35907 conn=wye bus1=uclv35907.1.2 kV=0.240178 Vminpu=0.95 Vmaxpu=1.05 model=1 kW=2.74003 kvar=1.33015976772 Phases=2

New Load.uclvl7695 conn=wye bus1=uclv7695.1.2 kV=0.240178 Vminpu=0.95 Vmaxpu=1.05 model=1 kW=0.760008 kvar=0.370023806178 Phases=2

New Load.uclvl21169 conn=wye bus1=uclv21169.1.2 kV=0.240178 Vminpu=0.95 Vmaxpu=1.05 model=1 kW=1.66002 kvar=0.800219242954 Phases=2

New Load.uclvl21168 conn=wye bus1=uclv21167.1.2 kV=0.240178 Vminpu=0.95 Vmaxpu=1.05 model=1 kW=1.66002 kvar=0.800219242954 Phases=2

New Load.uclvl37911 conn=wye bus1=uclv37911.1.2 kV=0.240178 Vminpu=0.95 Vmaxpu=1.05 model=1 kW=0.760008 kvar=0.370023806178 Phases=2

New Load.uclvl26745 conn=wye bus1=uclv26745 kV=0.48 Vminpu=0.95 Vmaxpu=1.05 model=1 kW=24.2402 kvar=11.7400646857 Phases=3

New Load.uclvl53959 conn=wye bus1=uclv53959.1.2 kV=0.240178 Vminpu=0.95 Vmaxpu=1.05 model=1 kW=2.74003 kvar=1.33015976772 Phases=2

New Load.uclvl7698 conn=wye bus1=uclv7699.1.2 kV=0.240178 Vminpu=0.95 Vmaxpu=1.05 model=1 kW=1.66002 kvar=0.800219242954 Phases=2

New Load.uclvl33406 conn=wye bus1=uclv33406.1.2 kV=0.240178 Vminpu=0.95 Vmaxpu=1.05 model=1 kW=0.760008 kvar=0.370023806178 Phases=2

New Load.uclvl7699 conn=wye bus1=uclv7699.1.2 kV=0.240178 Vminpu=0.95 Vmaxpu=1.05 model=1 kW=0.760008 kvar=0.370023806178 Phases=2

New Load.uclvl44400 conn=wye bus1=uclv44400.1.2 kV=0.240178 Vminpu=0.95 Vmaxpu=1.05 model=1 kW=2.74003 kvar=1.33015976772 Phases=2

New Load.uclvl42030 conn=wye bus1=uclv42030.1.2 kV=0.240178 Vminpu=0.95 Vmaxpu=1.05 model=1 kW=10.6601 kvar=5.1599024372 Phases=2

New Load.uclvl27905 conn=wye bus1=uclv27905 kV=0.48 Vminpu=0.95 Vmaxpu=1.05 model=1 kW=53.6005 kvar=25.9599069804 Phases=3

New Load.uclvl44976 conn=wye bus1=uclv44976.1.2 kV=0.240178 Vminpu=0.95 Vmaxpu=1.05 model=1 kW=2.74003 kvar=1.33015976772 Phases=2

New Load.uclvl44974 conn=wye bus1=uclv44974 kV=0.48 Vminpu=0.95 Vmaxpu=1.05 model=1 kW=60.6406 kvar=29.3695830306 Phases=3

New Load.uclvl53327 conn=wye bus1=uclv53327.1.2 kV=0.240178 Vminpu=0.95 Vmaxpu=1.05 model=1 kW=2.74003 kvar=1.33015976772 Phases=2

New Load.uclvl29898 conn=wye bus1=uclv29898 kV=0.48 Vminpu=0.95 Vmaxpu=1.05 model=1 kW=28.5803 kvar=13.8420710529 Phases=3

New Load.uclvl24846 conn=wye bus1=uclv24846.1.2 kV=0.240178 Vminpu=0.95 Vmaxpu=1.05 model=1 kW=8.13008 kvar=3.93987984568 Phases=2

New Load.uclvl53322 conn=wye bus1=uclv53322 kV=0.48 Vminpu=0.95 Vmaxpu=1.05 model=1 kW=295.483 kvar=143.108948504 Phases=3

New Load.uclvl48049 conn=wye bus1=uclv48049 kV=0.48 Vminpu=0.95 Vmaxpu=1.05 model=1 kW=28.5803 kvar=13.8420710529 Phases=3

New Load.uclvl29897 conn=wye bus1=uclv29897.1.2 kV=0.240178 Vminpu=0.95 Vmaxpu=1.05 model=1 kW=6.88007 kvar=3.33022110122 Phases=2

New Load.uclvl51807 conn=wye bus1=uclv51807 kV=0.48 Vminpu=0.95 Vmaxpu=1.05 model=1 kW=110.961 kvar=53.7408650749 Phases=3

New Load.uclvl39714 conn=wye bus1=uclv39714.1.2 kV=0.240178 Vminpu=0.95 Vmaxpu=1.05 model=1 kW=17.3002 kvar=8.37886927812 Phases=2

New Load.uclvl37220 conn=wye bus1=uclv37220 kV=0.48 Vminpu=0.95 Vmaxpu=1.05 model=1 kW=31.1203 kvar=15.0722491992 Phases=3

New Load.uclvl37392 conn=wye bus1=uclv37392 kV=0.48 Vminpu=0.95 Vmaxpu=1.05 model=1 kW=142.961 kvar=69.2391724297 Phases=3

New Load.uclvl22029 conn=wye bus1=uclv22029 kV=0.48 Vminpu=0.95 Vmaxpu=1.05 model=1 kW=326.763 kvar=158.258543943 Phases=3

New Load.uclvl52558 conn=wye bus1=uclv52558.1.2 kV=0.240178 Vminpu=0.95 Vmaxpu=1.05 model=1 kW=2.74003 kvar=1.33015976772 Phases=2

New Load.uclvl61762 conn=wye bus1=uclv61762.1.2 kV=0.240178 Vminpu=0.95 Vmaxpu=1.05 model=1 kW=2.74003 kvar=1.33015976772 Phases=2

New Load.uclvl53829 conn=wye bus1=uclv53829.1.2 kV=0.240178 Vminpu=0.95 Vmaxpu=1.05 model=1 kW=2.74003 kvar=1.33015976772 Phases=2

New Load.uclvl32667 conn=wye bus1=uclv32667.1.2 kV=0.240178 Vminpu=0.95 Vmaxpu=1.05 model=1 kW=8.13008 kvar=3.93987984568 Phases=2

New Load.uclvl15108 conn=wye bus1=uclv15108.1.2 kV=0.240178 Vminpu=0.95 Vmaxpu=1.05 model=1 kW=0.760008 kvar=0.370023806178 Phases=2

New Load.uclvl29438 conn=wye bus1=uclv29438 kV=0.48 Vminpu=0.95 Vmaxpu=1.05 model=1 kW=83.8408 kvar=40.6059527273 Phases=3

New Load.uclvl11337 conn=wye bus1=uclv11337.1.2 kV=0.240178 Vminpu=0.95 Vmaxpu=1.05 model=1 kW=2.74003 kvar=1.33015976772 Phases=2

New Load.uclvl11336 conn=wye bus1=uclv11336.1.2 kV=0.240178 Vminpu=0.95 Vmaxpu=1.05 model=1 kW=2.74003 kvar=1.33015976772 Phases=2

New Load.uclvl11335 conn=wye bus1=uclv11335.1.2 kV=0.240178 Vminpu=0.95 Vmaxpu=1.05 model=1 kW=2.74003 kvar=1.33015976772 Phases=2

New Load.uclvl11334 conn=wye bus1=uclv11333.1.2 kV=0.240178 Vminpu=0.95 Vmaxpu=1.05 model=1 kW=0.760008 kvar=0.370023806178 Phases=2

New Load.uclvl11333 conn=wye bus1=uclv11333.1.2 kV=0.240178 Vminpu=0.95 Vmaxpu=1.05 model=1 kW=2.74003 kvar=1.33015976772 Phases=2

New Load.uclvl11332 conn=wye bus1=uclv11332.1.2 kV=0.240178 Vminpu=0.95 Vmaxpu=1.05 model=1 kW=1.66002 kvar=0.800219242954 Phases=2

New Load.uclvl11331 conn=wye bus1=uclv11331.1.2 kV=0.240178 Vminpu=0.95 Vmaxpu=1.05 model=1 kW=0.760008 kvar=0.370023806178 Phases=2

New Load.uclvl11330 conn=wye bus1=uclv11330.1.2 kV=0.240178 Vminpu=0.95 Vmaxpu=1.05 model=1 kW=1.66002 kvar=0.800219242954 Phases=2

New Load.uclvl11339 conn=wye bus1=uclv11338.1.2 kV=0.240178 Vminpu=0.95 Vmaxpu=1.05 model=1 kW=0.760008 kvar=0.370023806178 Phases=2

New Load.uclvl11338 conn=wye bus1=uclv11338.1.2 kV=0.240178 Vminpu=0.95 Vmaxpu=1.05 model=1 kW=2.74003 kvar=1.33015976772 Phases=2

New Load.uclvl46632 conn=wye bus1=uclv46632.1.2 kV=0.240178 Vminpu=0.95 Vmaxpu=1.05 model=1 kW=4.16004 kvar=2.01008397043 Phases=2

New Load.uclvl21219 conn=wye bus1=uclv21220.1.2 kV=0.240178 Vminpu=0.95 Vmaxpu=1.05 model=1 kW=1.66002 kvar=0.800219242954 Phases=2

New Load.uclvl21218 conn=wye bus1=uclv21218.1.2 kV=0.240178 Vminpu=0.95 Vmaxpu=1.05 model=1 kW=1.66002 kvar=0.800219242954 Phases=2

New Load.uclvl21217 conn=wye bus1=uclv21217.1.2 kV=0.240178 Vminpu=0.95 Vmaxpu=1.05 model=1 kW=1.66002 kvar=0.800219242954 Phases=2

New Load.uclvl21216 conn=wye bus1=uclv21218.1.2 kV=0.240178 Vminpu=0.95 Vmaxpu=1.05 model=1 kW=1.66002 kvar=0.800219242954 Phases=2

New Load.uclvl21215 conn=wye bus1=uclv21215.1.2 kV=0.240178 Vminpu=0.95 Vmaxpu=1.05 model=1 kW=2.74003 kvar=1.33015976772 Phases=2

New Load.uclvl21214 conn=wye bus1=uclv21214.1.2 kV=0.240178 Vminpu=0.95 Vmaxpu=1.05 model=1 kW=1.66002 kvar=0.800219242954 Phases=2

New Load.uclvl21213 conn=wye bus1=uclv21213.1.2 kV=0.240178 Vminpu=0.95 Vmaxpu=1.05 model=1 kW=1.66002 kvar=0.800219242954 Phases=2

New Load.uclvl21212 conn=wye bus1=uclv21212.1.2 kV=0.240178 Vminpu=0.95 Vmaxpu=1.05 model=1 kW=1.66002 kvar=0.800219242954 Phases=2

New Load.uclvl21211 conn=wye bus1=uclv21211.1.2 kV=0.240178 Vminpu=0.95 Vmaxpu=1.05 model=1 kW=1.66002 kvar=0.800219242954 Phases=2

New Load.uclvl21210 conn=wye bus1=uclv21212.1.2 kV=0.240178 Vminpu=0.95 Vmaxpu=1.05 model=1 kW=1.66002 kvar=0.800219242954 Phases=2

New Load.uclvl12822 conn=wye bus1=uclv12822 kV=0.48 Vminpu=0.95 Vmaxpu=1.05 model=1 kW=28.5803 kvar=13.8420710529 Phases=3

New Load.uclvl12823 conn=wye bus1=uclv12823 kV=0.48 Vminpu=0.95 Vmaxpu=1.05 model=1 kW=28.5803 kvar=13.8420710529 Phases=3

New Load.uclvl12820 conn=wye bus1=uclv12820 kV=0.48 Vminpu=0.95 Vmaxpu=1.05 model=1 kW=128.431 kvar=62.2019722464 Phases=3

New Load.uclvl12821 conn=wye bus1=uclv12821 kV=0.48 Vminpu=0.95 Vmaxpu=1.05 model=1 kW=28.5803 kvar=13.8420710529 Phases=3

New Load.uclvl48890 conn=wye bus1=uclv48890.1.2 kV=0.240178 Vminpu=0.95 Vmaxpu=1.05 model=1 kW=0.450005 kvar=0.219982590806 Phases=2

New Load.uclvl21189 conn=wye bus1=uclv21189.1.2 kV=0.240178 Vminpu=0.95 Vmaxpu=1.05 model=1 kW=1.66002 kvar=0.800219242954 Phases=2

New Load.uclvl21188 conn=wye bus1=uclv21188.1.2 kV=0.240178 Vminpu=0.95 Vmaxpu=1.05 model=1 kW=1.66002 kvar=0.800219242954 Phases=2

New Load.uclvl21187 conn=wye bus1=uclv21187.1.2 kV=0.240178 Vminpu=0.95 Vmaxpu=1.05 model=1 kW=1.66002 kvar=0.800219242954 Phases=2

New Load.uclvl21186 conn=wye bus1=uclv21186.1.2 kV=0.240178 Vminpu=0.95 Vmaxpu=1.05 model=1 kW=1.66002 kvar=0.800219242954 Phases=2

New Load.uclvl21185 conn=wye bus1=uclv21185.1.2 kV=0.240178 Vminpu=0.95 Vmaxpu=1.05 model=1 kW=1.66002 kvar=0.800219242954 Phases=2

New Load.uclvl21184 conn=wye bus1=uclv21184.1.2 kV=0.240178 Vminpu=0.95 Vmaxpu=1.05 model=1 kW=1.66002 kvar=0.800219242954 Phases=2

New Load.uclvl21183 conn=wye bus1=uclv21183.1.2 kV=0.240178 Vminpu=0.95 Vmaxpu=1.05 model=1 kW=1.66002 kvar=0.800219242954 Phases=2

New Load.uclvl21182 conn=wye bus1=uclv21181.1.2 kV=0.240178 Vminpu=0.95 Vmaxpu=1.05 model=1 kW=1.66002 kvar=0.800219242954 Phases=2

New Load.uclvl21181 conn=wye bus1=uclv21181.1.2 kV=0.240178 Vminpu=0.95 Vmaxpu=1.05 model=1 kW=1.66002 kvar=0.800219242954 Phases=2

New Load.uclvl21180 conn=wye bus1=uclv21180.1.2 kV=0.240178 Vminpu=0.95 Vmaxpu=1.05 model=1 kW=1.66002 kvar=0.800219242954 Phases=2

New Load.uclvl29388 conn=wye bus1=uclv29388.1.2 kV=0.240178 Vminpu=0.95 Vmaxpu=1.05 model=1 kW=12.7201 kvar=6.16062560575 Phases=2

New Load.uclvl36694 conn=wye bus1=uclv36694 kV=0.48 Vminpu=0.95 Vmaxpu=1.05 model=1 kW=28.5803 kvar=13.8420710529 Phases=3

New Load.uclvl51499 conn=wye bus1=uclv51499.1.2 kV=0.240178 Vminpu=0.95 Vmaxpu=1.05 model=1 kW=16.1102 kvar=7.79796251853 Phases=2

New Load.uclvl43828 conn=wye bus1=uclv43828.1.2 kV=0.240178 Vminpu=0.95 Vmaxpu=1.05 model=1 kW=1.66002 kvar=0.800219242954 Phases=2

New Load.uclvl24932 conn=wye bus1=uclv24932.1.2 kV=0.240178 Vminpu=0.95 Vmaxpu=1.05 model=1 kW=5.60006 kvar=2.71064654576 Phases=2

New Load.uclvl41034 conn=wye bus1=uclv41034.1.2 kV=0.240178 Vminpu=0.95 Vmaxpu=1.05 model=1 kW=1.66002 kvar=0.800219242954 Phases=2

New Load.uclvl51952 conn=wye bus1=uclv51952.1.2 kV=0.240178 Vminpu=0.95 Vmaxpu=1.05 model=1 kW=3.68004 kvar=1.78023960336 Phases=2

New Load.uclvl58815 conn=wye bus1=uclv58815 kV=0.48 Vminpu=0.95 Vmaxpu=1.05 model=1 kW=28.5803 kvar=13.8420710529 Phases=3

New Load.uclvl56670 conn=wye bus1=uclv56670.1.2 kV=0.240178 Vminpu=0.95 Vmaxpu=1.05 model=1 kW=2.74003 kvar=1.33015976772 Phases=2

New Load.uclvl30629 conn=wye bus1=uclv30629.1.2 kV=0.240178 Vminpu=0.95 Vmaxpu=1.05 model=1 kW=16.1102 kvar=7.79796251853 Phases=2

New Load.uclvl64302 conn=wye bus1=uclv64302.1.2 kV=0.240178 Vminpu=0.95 Vmaxpu=1.05 model=1 kW=2.74003 kvar=1.33015976772 Phases=2

New Load.uclvl42483 conn=wye bus1=uclv42483 kV=0.48 Vminpu=0.95 Vmaxpu=1.05 model=1 kW=28.5803 kvar=13.8420710529 Phases=3

New Load.uclvl64305 conn=wye bus1=uclv64305 kV=0.48 Vminpu=0.95 Vmaxpu=1.05 model=1 kW=71.0207 kvar=34.3968949111 Phases=3

New Load.uclvl42489 conn=wye bus1=uclv42489 kV=0.48 Vminpu=0.95 Vmaxpu=1.05 model=1 kW=40.7404 kvar=19.7314762799 Phases=3

New Load.uclvl58050 conn=wye bus1=uclv58050 kV=0.48 Vminpu=0.95 Vmaxpu=1.05 model=1 kW=28.5803 kvar=13.8420710529 Phases=3

New Load.uclvl53601 conn=wye bus1=uclv53601.1.2 kV=0.240178 Vminpu=0.95 Vmaxpu=1.05 model=1 kW=2.74003 kvar=1.33015976772 Phases=2

New Load.uclvl12592 conn=wye bus1=uclv12592 kV=0.48 Vminpu=0.95 Vmaxpu=1.05 model=1 kW=28.5803 kvar=13.8420710529 Phases=3

New Load.uclvl12593 conn=wye bus1=uclv12593 kV=0.48 Vminpu=0.95 Vmaxpu=1.05 model=1 kW=28.5803 kvar=13.8420710529 Phases=3

New Load.uclvl12590 conn=wye bus1=uclv12590.1.2 kV=0.240178 Vminpu=0.95 Vmaxpu=1.05 model=1 kW=7.73008 kvar=3.75041429997 Phases=2

New Load.uclvl12591 conn=wye bus1=uclv12591 kV=0.48 Vminpu=0.95 Vmaxpu=1.05 model=1 kW=28.5803 kvar=13.8420710529 Phases=3

New Load.uclvl12596 conn=wye bus1=uclv12596 kV=0.48 Vminpu=0.95 Vmaxpu=1.05 model=1 kW=28.5803 kvar=13.8420710529 Phases=3

New Load.uclvl16078 conn=wye bus1=uclv16078 kV=0.48 Vminpu=0.95 Vmaxpu=1.05 model=1 kW=28.5803 kvar=13.8420710529 Phases=3

New Load.uclvl12594 conn=wye bus1=uclv12594.1.2 kV=0.240178 Vminpu=0.95 Vmaxpu=1.05 model=1 kW=6.02006 kvar=2.91053102435 Phases=2

New Load.uclvl12595 conn=wye bus1=uclv12595 kV=0.48 Vminpu=0.95 Vmaxpu=1.05 model=1 kW=28.5803 kvar=13.8420710529 Phases=3

New Load.uclvl42466 conn=wye bus1=uclv42466.1.2 kV=0.240178 Vminpu=0.95 Vmaxpu=1.05 model=1 kW=2.74003 kvar=1.33015976772 Phases=2

New Load.uclvl12598 conn=wye bus1=uclv12598 kV=0.48 Vminpu=0.95 Vmaxpu=1.05 model=1 kW=28.5803 kvar=13.8420710529 Phases=3

New Load.uclvl12599 conn=wye bus1=uclv12599 kV=0.48 Vminpu=0.95 Vmaxpu=1.05 model=1 kW=28.5803 kvar=13.8420710529 Phases=3

New Load.uclvl20388 conn=wye bus1=uclv20388.1.2 kV=0.240178 Vminpu=0.95 Vmaxpu=1.05 model=1 kW=2.74003 kvar=1.33015976772 Phases=2

New Load.uclvl31667 conn=wye bus1=uclv31667 kV=0.48 Vminpu=0.95 Vmaxpu=1.05 model=1 kW=274.243 kvar=132.821946997 Phases=3

New Load.uclvl23850 conn=wye bus1=uclv23850 kV=0.48 Vminpu=0.95 Vmaxpu=1.05 model=1 kW=229.282 kvar=111.046340841 Phases=3

New Load.uclvl23584 conn=wye bus1=uclv23584.1.2 kV=0.240178 Vminpu=0.95 Vmaxpu=1.05 model=1 kW=1.66002 kvar=0.800219242954 Phases=2

New Load.uclvl35372 conn=wye bus1=uclv35372 kV=0.48 Vminpu=0.95 Vmaxpu=1.05 model=1 kW=40.7404 kvar=19.7314762799 Phases=3

New Load.uclvl55891 conn=wye bus1=uclv55891.1.2 kV=0.240178 Vminpu=0.95 Vmaxpu=1.05 model=1 kW=2.74003 kvar=1.33015976772 Phases=2

New Load.uclvl28390 conn=wye bus1=uclv28390.1.2 kV=0.240178 Vminpu=0.95 Vmaxpu=1.05 model=1 kW=1.66002 kvar=0.800219242954 Phases=2

New Load.uclvl8157 conn=wye bus1=uclv8157 kV=0.48 Vminpu=0.95 Vmaxpu=1.05 model=1 kW=142.521 kvar=69.0260707036 Phases=3

New Load.uclvl8158 conn=wye bus1=uclv8158.1.2 kV=0.240178 Vminpu=0.95 Vmaxpu=1.05 model=1 kW=8.13008 kvar=3.93987984568 Phases=2

New Load.uclvl8159 conn=wye bus1=uclv8159.1.2 kV=0.240178 Vminpu=0.95 Vmaxpu=1.05 model=1 kW=2.74003 kvar=1.33015976772 Phases=2

New Load.uclvl46010 conn=wye bus1=uclv46010.1.2 kV=0.240178 Vminpu=0.95 Vmaxpu=1.05 model=1 kW=2.74003 kvar=1.33015976772 Phases=2

New Load.uclvl25512 conn=wye bus1=uclv25512.1.2 kV=0.240178 Vminpu=0.95 Vmaxpu=1.05 model=1 kW=4.88005 kvar=2.35936800055 Phases=2

New Load.uclvl52264 conn=wye bus1=uclv52264.1.2 kV=0.240178 Vminpu=0.95 Vmaxpu=1.05 model=1 kW=0.910009 kvar=0.439963958323 Phases=2

New Load.uclvl38319 conn=wye bus1=uclv38319.1.2 kV=0.240178 Vminpu=0.95 Vmaxpu=1.05 model=1 kW=2.74003 kvar=1.33015976772 Phases=2

New Load.uclvl42795 conn=wye bus1=uclv42795 kV=0.48 Vminpu=0.95 Vmaxpu=1.05 model=1 kW=25.5103 kvar=12.3624265478 Phases=3

New Load.uclvl19309 conn=wye bus1=uclv19309.1.2 kV=0.240178 Vminpu=0.95 Vmaxpu=1.05 model=1 kW=1.66002 kvar=0.800219242954 Phases=2

New Load.uclvl39048 conn=wye bus1=uclv39048 kV=0.48 Vminpu=0.95 Vmaxpu=1.05 model=1 kW=66.6807 kvar=32.2949369761 Phases=3

New Load.uclvl50402 conn=wye bus1=uclv50402 kV=0.48 Vminpu=0.95 Vmaxpu=1.05 model=1 kW=221.442 kvar=107.24925554 Phases=3

New Load.uclvl40355 conn=wye bus1=uclv40355 kV=0.48 Vminpu=0.95 Vmaxpu=1.05 model=1 kW=27.6503 kvar=13.3916514954 Phases=3

New Load.uclvl48273 conn=wye bus1=uclv48273.1.2 kV=0.240178 Vminpu=0.95 Vmaxpu=1.05 model=1 kW=0.760008 kvar=0.370023806178 Phases=2

New Load.uclvl21160 conn=wye bus1=uclv21160.1.2 kV=0.240178 Vminpu=0.95 Vmaxpu=1.05 model=1 kW=1.66002 kvar=0.800219242954 Phases=2

New Load.uclvl20351 conn=wye bus1=uclv20351 kV=0.48 Vminpu=0.95 Vmaxpu=1.05 model=1 kW=42.3604 kvar=20.5160780898 Phases=3

New Load.uclvl45371 conn=wye bus1=uclv45371 kV=0.48 Vminpu=0.95 Vmaxpu=1.05 model=1 kW=121.161 kvar=58.6809505443 Phases=3

New Load.uclvl57810 conn=wye bus1=uclv57810.1.2 kV=0.240178 Vminpu=0.95 Vmaxpu=1.05 model=1 kW=8.13008 kvar=3.93987984568 Phases=2

New Load.uclvl20358 conn=wye bus1=uclv20358 kV=0.48 Vminpu=0.95 Vmaxpu=1.05 model=1 kW=45.1205 kvar=21.8528555313 Phases=3

New Load.uclvl39916 conn=wye bus1=uclv39916.1.2 kV=0.240178 Vminpu=0.95 Vmaxpu=1.05 model=1 kW=6.44006 kvar=3.12088719902 Phases=2

New Load.uclvl46234 conn=wye bus1=uclv46234.1.2 kV=0.240178 Vminpu=0.95 Vmaxpu=1.05 model=1 kW=16.3002 kvar=7.89916328752 Phases=2

New Load.uclvl7797 conn=wye bus1=uclv7797.1.2 kV=0.240178 Vminpu=0.95 Vmaxpu=1.05 model=1 kW=2.74003 kvar=1.33015976772 Phases=2

New Load.uclvl7796 conn=wye bus1=uclv7796.1.2 kV=0.240178 Vminpu=0.95 Vmaxpu=1.05 model=1 kW=2.74003 kvar=1.33015976772 Phases=2

New Load.uclvl7795 conn=wye bus1=uclv7795.1.2 kV=0.240178 Vminpu=0.95 Vmaxpu=1.05 model=1 kW=1.66002 kvar=0.800219242954 Phases=2

New Load.uclvl7794 conn=wye bus1=uclv7795.1.2 kV=0.240178 Vminpu=0.95 Vmaxpu=1.05 model=1 kW=1.66002 kvar=0.800219242954 Phases=2

New Load.uclvl7793 conn=wye bus1=uclv7793.1.2 kV=0.240178 Vminpu=0.95 Vmaxpu=1.05 model=1 kW=1.66002 kvar=0.800219242954 Phases=2

New Load.uclvl7792 conn=wye bus1=uclv7792.1.2 kV=0.240178 Vminpu=0.95 Vmaxpu=1.05 model=1 kW=2.74003 kvar=1.33015976772 Phases=2

New Load.uclvl7791 conn=wye bus1=uclv7791.1.2 kV=0.240178 Vminpu=0.95 Vmaxpu=1.05 model=1 kW=2.74003 kvar=1.33015976772 Phases=2

New Load.uclvl7790 conn=wye bus1=uclv7790.1.2 kV=0.240178 Vminpu=0.95 Vmaxpu=1.05 model=1 kW=1.66002 kvar=0.800219242954 Phases=2

New Load.uclvl28401 conn=wye bus1=uclv28401.1.2 kV=0.240178 Vminpu=0.95 Vmaxpu=1.05 model=1 kW=8.13008 kvar=3.93987984568 Phases=2

New Load.uclvl34176 conn=wye bus1=uclv34176 kV=0.48 Vminpu=0.95 Vmaxpu=1.05 model=1 kW=228.202 kvar=110.523272968 Phases=3

New Load.uclvl34170 conn=wye bus1=uclv34170 kV=0.48 Vminpu=0.95 Vmaxpu=1.05 model=1 kW=119.561 kvar=57.9060351765 Phases=3

New Load.uclvl9559 conn=wye bus1=uclv9559.1.2 kV=0.240178 Vminpu=0.95 Vmaxpu=1.05 model=1 kW=0.760008 kvar=0.370023806178 Phases=2

New Load.uclvl7798 conn=wye bus1=uclv7798.1.2 kV=0.240178 Vminpu=0.95 Vmaxpu=1.05 model=1 kW=1.66002 kvar=0.800219242954 Phases=2

New Load.uclvl40220 conn=wye bus1=uclv40220 kV=0.48 Vminpu=0.95 Vmaxpu=1.05 model=1 kW=40.7404 kvar=19.7314762799 Phases=3

New Load.uclvl8216 conn=wye bus1=uclv8216.1.2 kV=0.240178 Vminpu=0.95 Vmaxpu=1.05 model=1 kW=2.74003 kvar=1.33015976772 Phases=2

New Load.uclvl39765 conn=wye bus1=uclv39765 kV=0.48 Vminpu=0.95 Vmaxpu=1.05 model=1 kW=66.9207 kvar=32.4111742812 Phases=3

New Load.uclvl35903 conn=wye bus1=uclv35903 kV=0.48 Vminpu=0.95 Vmaxpu=1.05 model=1 kW=159.042 kvar=77.0275561976 Phases=3

New Load.uclvl12778 conn=wye bus1=uclv12778 kV=0.48 Vminpu=0.95 Vmaxpu=1.05 model=1 kW=128.431 kvar=62.2019722464 Phases=3

New Load.uclvl12779 conn=wye bus1=uclv12779 kV=0.48 Vminpu=0.95 Vmaxpu=1.05 model=1 kW=128.431 kvar=62.2019722464 Phases=3

New Load.uclvl36443 conn=wye bus1=uclv36443.1.2 kV=0.240178 Vminpu=0.95 Vmaxpu=1.05 model=1 kW=0.760008 kvar=0.370023806178 Phases=2

New Load.uclvl59572 conn=wye bus1=uclv59572.1.2 kV=0.240178 Vminpu=0.95 Vmaxpu=1.05 model=1 kW=2.74003 kvar=1.33015976772 Phases=2

New Load.uclvl50143 conn=wye bus1=uclv50143 kV=0.48 Vminpu=0.95 Vmaxpu=1.05 model=1 kW=171.602 kvar=83.1106418344 Phases=3

New Load.uclvl47495 conn=wye bus1=uclv47495 kV=0.48 Vminpu=0.95 Vmaxpu=1.05 model=1 kW=45.2905 kvar=21.9351902892 Phases=3

New Load.uclvl18838 conn=wye bus1=uclv18838 kV=0.48 Vminpu=0.95 Vmaxpu=1.05 model=1 kW=115.081 kvar=55.7362721468 Phases=3

New Load.uclvl12776 conn=wye bus1=uclv12776.1.2 kV=0.240178 Vminpu=0.95 Vmaxpu=1.05 model=1 kW=0.880009 kvar=0.429939507065 Phases=2

New Load.uclvl12777 conn=wye bus1=uclv12777 kV=0.48 Vminpu=0.95 Vmaxpu=1.05 model=1 kW=28.5803 kvar=13.8420710529 Phases=3

New Load.uclvl12775 conn=wye bus1=uclv12775.1.2 kV=0.240178 Vminpu=0.95 Vmaxpu=1.05 model=1 kW=0.130001 kvar=0.0599851768177 Phases=2

New Load.uclvl38146 conn=wye bus1=uclv38146 kV=0.48 Vminpu=0.95 Vmaxpu=1.05 model=1 kW=27.8803 kvar=13.5030455795 Phases=3

New Load.uclvl12578 conn=wye bus1=uclv12578 kV=0.48 Vminpu=0.95 Vmaxpu=1.05 model=1 kW=28.5803 kvar=13.8420710529 Phases=3

New Load.uclvl12579 conn=wye bus1=uclv12579 kV=0.48 Vminpu=0.95 Vmaxpu=1.05 model=1 kW=24.6802 kvar=11.9531664118 Phases=3

New Load.uclvl12574 conn=wye bus1=uclv12574 kV=0.48 Vminpu=0.95 Vmaxpu=1.05 model=1 kW=28.5803 kvar=13.8420710529 Phases=3

New Load.uclvl12575 conn=wye bus1=uclv12575 kV=0.48 Vminpu=0.95 Vmaxpu=1.05 model=1 kW=24.7602 kvar=11.9919121802 Phases=3

New Load.uclvl12576 conn=wye bus1=uclv12576 kV=0.48 Vminpu=0.95 Vmaxpu=1.05 model=1 kW=28.5803 kvar=13.8420710529 Phases=3

New Load.uclvl12577 conn=wye bus1=uclv12577 kV=0.48 Vminpu=0.95 Vmaxpu=1.05 model=1 kW=28.5803 kvar=13.8420710529 Phases=3

New Load.uclvl12570 conn=wye bus1=uclv12570 kV=0.48 Vminpu=0.95 Vmaxpu=1.05 model=1 kW=63.4406 kvar=30.7256849242 Phases=3

New Load.uclvl12571 conn=wye bus1=uclv12571 kV=0.48 Vminpu=0.95 Vmaxpu=1.05 model=1 kW=28.5803 kvar=13.8420710529 Phases=3

New Load.uclvl12572 conn=wye bus1=uclv12572.1.2 kV=0.240178 Vminpu=0.95 Vmaxpu=1.05 model=1 kW=7.45007 kvar=3.61034339661 Phases=2

New Load.uclvl12573 conn=wye bus1=uclv12573 kV=0.48 Vminpu=0.95 Vmaxpu=1.05 model=1 kW=28.5803 kvar=13.8420710529 Phases=3

New Load.uclvl57055 conn=wye bus1=uclv57055.1.2 kV=0.240178 Vminpu=0.95 Vmaxpu=1.05 model=1 kW=8.13008 kvar=3.93987984568 Phases=2

New Load.uclvl36711 conn=wye bus1=uclv36711.1.2 kV=0.240178 Vminpu=0.95 Vmaxpu=1.05 model=1 kW=1.66002 kvar=0.800219242954 Phases=2

New Load.uclvl59401 conn=wye bus1=uclv59401.1.2 kV=0.240178 Vminpu=0.95 Vmaxpu=1.05 model=1 kW=0.420004 kvar=0.199954587053 Phases=2

New Load.uclvl26351 conn=wye bus1=uclv26351.1.2 kV=0.240178 Vminpu=0.95 Vmaxpu=1.05 model=1 kW=1.66002 kvar=0.800219242954 Phases=2

New Load.uclvl27735 conn=wye bus1=uclv27735.1.2 kV=0.240178 Vminpu=0.95 Vmaxpu=1.05 model=1 kW=2.74003 kvar=1.33015976772 Phases=2

New Load.uclvl33876 conn=wye bus1=uclv33876 kV=0.48 Vminpu=0.95 Vmaxpu=1.05 model=1 kW=55.2006 kvar=26.7348707803 Phases=3

New Load.uclvl7807 conn=wye bus1=uclv7807.1.2 kV=0.240178 Vminpu=0.95 Vmaxpu=1.05 model=1 kW=2.74003 kvar=1.33015976772 Phases=2

New Load.uclvl7806 conn=wye bus1=uclv7806.1.2 kV=0.240178 Vminpu=0.95 Vmaxpu=1.05 model=1 kW=2.74003 kvar=1.33015976772 Phases=2

New Load.uclvl7805 conn=wye bus1=uclv7805.1.2 kV=0.240178 Vminpu=0.95 Vmaxpu=1.05 model=1 kW=1.66002 kvar=0.800219242954 Phases=2

New Load.uclvl7804 conn=wye bus1=uclv7805.1.2 kV=0.240178 Vminpu=0.95 Vmaxpu=1.05 model=1 kW=1.66002 kvar=0.800219242954 Phases=2

New Load.uclvl7803 conn=wye bus1=uclv7803.1.2 kV=0.240178 Vminpu=0.95 Vmaxpu=1.05 model=1 kW=1.66002 kvar=0.800219242954 Phases=2

New Load.uclvl7802 conn=wye bus1=uclv7803.1.2 kV=0.240178 Vminpu=0.95 Vmaxpu=1.05 model=1 kW=1.66002 kvar=0.800219242954 Phases=2

New Load.uclvl7801 conn=wye bus1=uclv7801.1.2 kV=0.240178 Vminpu=0.95 Vmaxpu=1.05 model=1 kW=2.74003 kvar=1.33015976772 Phases=2

New Load.uclvl7800 conn=wye bus1=uclv7800.1.2 kV=0.240178 Vminpu=0.95 Vmaxpu=1.05 model=1 kW=2.74003 kvar=1.33015976772 Phases=2

New Load.uclvl28908 conn=wye bus1=uclv28908.1.2 kV=0.240178 Vminpu=0.95 Vmaxpu=1.05 model=1 kW=0.430004 kvar=0.209962529876 Phases=2

New Load.uclvl23025 conn=wye bus1=uclv23025 kV=0.48 Vminpu=0.95 Vmaxpu=1.05 model=1 kW=69.5207 kvar=33.6704117538 Phases=3

New Load.uclvl7809 conn=wye bus1=uclv7809.1.2 kV=0.240178 Vminpu=0.95 Vmaxpu=1.05 model=1 kW=2.74003 kvar=1.33015976772 Phases=2

New Load.uclvl7808 conn=wye bus1=uclv7808.1.2 kV=0.240178 Vminpu=0.95 Vmaxpu=1.05 model=1 kW=1.66002 kvar=0.800219242954 Phases=2

New Load.uclvl45562 conn=wye bus1=uclv45562.1.2 kV=0.240178 Vminpu=0.95 Vmaxpu=1.05 model=1 kW=1.66002 kvar=0.800219242954 Phases=2

New Load.uclvl42956 conn=wye bus1=uclv42956.1.2 kV=0.240178 Vminpu=0.95 Vmaxpu=1.05 model=1 kW=0.900009 kvar=0.439964692768 Phases=2

New Load.uclvl52800 conn=wye bus1=uclv52800 kV=0.48 Vminpu=0.95 Vmaxpu=1.05 model=1 kW=119.561 kvar=57.9060351765 Phases=3

New Load.uclvl53192 conn=wye bus1=uclv53192.1.2 kV=0.240178 Vminpu=0.95 Vmaxpu=1.05 model=1 kW=0.760008 kvar=0.370023806178 Phases=2

New Load.uclvl28376 conn=wye bus1=uclv28376 kV=0.48 Vminpu=0.95 Vmaxpu=1.05 model=1 kW=186.712 kvar=90.4287488385 Phases=3

New Load.uclvl39236 conn=wye bus1=uclv39236 kV=0.48 Vminpu=0.95 Vmaxpu=1.05 model=1 kW=24.4002 kvar=11.8175562225 Phases=3

New Load.uclvl51585 conn=wye bus1=uclv51585.1.2 kV=0.240178 Vminpu=0.95 Vmaxpu=1.05 model=1 kW=1.66002 kvar=0.800219242954 Phases=2

New Load.uclvl61808 conn=wye bus1=uclv61808.1.2 kV=0.240178 Vminpu=0.95 Vmaxpu=1.05 model=1 kW=8.13008 kvar=3.93987984568 Phases=2

New Load.uclvl14245 conn=wye bus1=uclv14245 kV=0.48 Vminpu=0.95 Vmaxpu=1.05 model=1 kW=119.561 kvar=57.9060351765 Phases=3

New Load.uclvl49849 conn=wye bus1=uclv49849 kV=0.48 Vminpu=0.95 Vmaxpu=1.05 model=1 kW=157.042 kvar=76.0589119879 Phases=3

New Load.uclvl31932 conn=wye bus1=uclv31932.1.2 kV=0.240178 Vminpu=0.95 Vmaxpu=1.05 model=1 kW=0.760008 kvar=0.370023806178 Phases=2

New Load.uclvl5799 conn=wye bus1=uclv5799.1.2 kV=0.240178 Vminpu=0.95 Vmaxpu=1.05 model=1 kW=14.2801 kvar=6.92021212391 Phases=2

New Load.uclvl5798 conn=wye bus1=uclv5798 kV=0.48 Vminpu=0.95 Vmaxpu=1.05 model=1 kW=20.6402 kvar=10.0023502833 Phases=3

New Load.uclvl32979 conn=wye bus1=uclv32979.1.2 kV=0.240178 Vminpu=0.95 Vmaxpu=1.05 model=1 kW=0.760008 kvar=0.370023806178 Phases=2

New Load.uclvl43226 conn=wye bus1=uclv43226.1.2 kV=0.240178 Vminpu=0.95 Vmaxpu=1.05 model=1 kW=1.66002 kvar=0.800219242954 Phases=2

New Load.uclvl36815 conn=wye bus1=uclv36815 kV=0.48 Vminpu=0.95 Vmaxpu=1.05 model=1 kW=119.561 kvar=57.9060351765 Phases=3

New Load.uclvl23111 conn=wye bus1=uclv23111 kV=0.48 Vminpu=0.95 Vmaxpu=1.05 model=1 kW=117.801 kvar=57.053628272 Phases=3

New Load.uclvl9979 conn=wye bus1=uclv9979 kV=0.48 Vminpu=0.95 Vmaxpu=1.05 model=1 kW=96.761 kvar=46.8634911862 Phases=3

New Load.uclvl9978 conn=wye bus1=uclv9978 kV=0.48 Vminpu=0.95 Vmaxpu=1.05 model=1 kW=128.431 kvar=62.2019722464 Phases=3

New Load.uclvl26193 conn=wye bus1=uclv26193.1.2 kV=0.240178 Vminpu=0.95 Vmaxpu=1.05 model=1 kW=2.74003 kvar=1.33015976772 Phases=2

New Load.uclvl9971 conn=wye bus1=uclv9971 kV=0.48 Vminpu=0.95 Vmaxpu=1.05 model=1 kW=28.5803 kvar=13.8420710529 Phases=3

New Load.uclvl9970 conn=wye bus1=uclv9970 kV=0.48 Vminpu=0.95 Vmaxpu=1.05 model=1 kW=28.5803 kvar=13.8420710529 Phases=3

New Load.uclvl9973 conn=wye bus1=uclv9973 kV=0.48 Vminpu=0.95 Vmaxpu=1.05 model=1 kW=28.5803 kvar=13.8420710529 Phases=3

New Load.uclvl9972 conn=wye bus1=uclv9972 kV=0.48 Vminpu=0.95 Vmaxpu=1.05 model=1 kW=28.5803 kvar=13.8420710529 Phases=3

New Load.uclvl9975 conn=wye bus1=uclv9975 kV=0.48 Vminpu=0.95 Vmaxpu=1.05 model=1 kW=28.5803 kvar=13.8420710529 Phases=3

New Load.uclvl9974 conn=wye bus1=uclv9974 kV=0.48 Vminpu=0.95 Vmaxpu=1.05 model=1 kW=28.5803 kvar=13.8420710529 Phases=3

New Load.uclvl9977 conn=wye bus1=uclv9977 kV=0.48 Vminpu=0.95 Vmaxpu=1.05 model=1 kW=28.5803 kvar=13.8420710529 Phases=3

New Load.uclvl9976 conn=wye bus1=uclv9976 kV=0.48 Vminpu=0.95 Vmaxpu=1.05 model=1 kW=28.5803 kvar=13.8420710529 Phases=3

New Load.uclvl21172 conn=wye bus1=uclv21172.1.2 kV=0.240178 Vminpu=0.95 Vmaxpu=1.05 model=1 kW=1.66002 kvar=0.800219242954 Phases=2

New Load.uclvl21173 conn=wye bus1=uclv21172.1.2 kV=0.240178 Vminpu=0.95 Vmaxpu=1.05 model=1 kW=1.66002 kvar=0.800219242954 Phases=2

New Load.uclvl21170 conn=wye bus1=uclv21170.1.2 kV=0.240178 Vminpu=0.95 Vmaxpu=1.05 model=1 kW=1.66002 kvar=0.800219242954 Phases=2

New Load.uclvl21171 conn=wye bus1=uclv21171.1.2 kV=0.240178 Vminpu=0.95 Vmaxpu=1.05 model=1 kW=1.66002 kvar=0.800219242954 Phases=2

New Load.uclvl21176 conn=wye bus1=uclv21176.1.2 kV=0.240178 Vminpu=0.95 Vmaxpu=1.05 model=1 kW=1.66002 kvar=0.800219242954 Phases=2

New Load.uclvl21177 conn=wye bus1=uclv21176.1.2 kV=0.240178 Vminpu=0.95 Vmaxpu=1.05 model=1 kW=1.66002 kvar=0.800219242954 Phases=2

New Load.uclvl21174 conn=wye bus1=uclv21174.1.2 kV=0.240178 Vminpu=0.95 Vmaxpu=1.05 model=1 kW=1.66002 kvar=0.800219242954 Phases=2

New Load.uclvl21175 conn=wye bus1=uclv21175.1.2 kV=0.240178 Vminpu=0.95 Vmaxpu=1.05 model=1 kW=2.74003 kvar=1.33015976772 Phases=2

New Load.uclvl21178 conn=wye bus1=uclv21178.1.2 kV=0.240178 Vminpu=0.95 Vmaxpu=1.05 model=1 kW=1.66002 kvar=0.800219242954 Phases=2

New Load.uclvl21179 conn=wye bus1=uclv21180.1.2 kV=0.240178 Vminpu=0.95 Vmaxpu=1.05 model=1 kW=1.66002 kvar=0.800219242954 Phases=2

New Load.uclvl46490 conn=wye bus1=uclv46490 kV=0.48 Vminpu=0.95 Vmaxpu=1.05 model=1 kW=59.3606 kvar=28.7496507364 Phases=3

New Load.uclvl46491 conn=wye bus1=uclv46491.1.2 kV=0.240178 Vminpu=0.95 Vmaxpu=1.05 model=1 kW=1.66002 kvar=0.800219242954 Phases=2

New Load.uclvl56578 conn=wye bus1=uclv56578 kV=0.48 Vminpu=0.95 Vmaxpu=1.05 model=1 kW=28.5803 kvar=13.8420710529 Phases=3

New Load.uclvl53943 conn=wye bus1=uclv53943 kV=0.48 Vminpu=0.95 Vmaxpu=1.05 model=1 kW=45.2905 kvar=21.9351902892 Phases=3

New Load.uclvl18048 conn=wye bus1=uclv18048.1.2 kV=0.240178 Vminpu=0.95 Vmaxpu=1.05 model=1 kW=1.66002 kvar=0.800219242954 Phases=2

New Load.uclvl59373 conn=wye bus1=uclv59373.1.2 kV=0.240178 Vminpu=0.95 Vmaxpu=1.05 model=1 kW=2.74003 kvar=1.33015976772 Phases=2

New Load.uclvl33419 conn=wye bus1=uclv33419 kV=0.48 Vminpu=0.95 Vmaxpu=1.05 model=1 kW=34.3603 kvar=16.6414528189 Phases=3

New Load.uclvl32437 conn=wye bus1=uclv32437 kV=0.48 Vminpu=0.95 Vmaxpu=1.05 model=1 kW=293.083 kvar=141.946575452 Phases=3

New Load.uclvl19545 conn=wye bus1=uclv19545.1.2 kV=0.240178 Vminpu=0.95 Vmaxpu=1.05 model=1 kW=4.92005 kvar=2.38985212042 Phases=2

New Load.uclvl45942 conn=wye bus1=uclv45942.1.2 kV=0.240178 Vminpu=0.95 Vmaxpu=1.05 model=1 kW=2.74003 kvar=1.33015976772 Phases=2

New Load.uclvl54404 conn=wye bus1=uclv54404.1.2 kV=0.240178 Vminpu=0.95 Vmaxpu=1.05 model=1 kW=2.74003 kvar=1.33015976772 Phases=2

New Load.uclvl23205 conn=wye bus1=uclv23205.1.2 kV=0.240178 Vminpu=0.95 Vmaxpu=1.05 model=1 kW=0.760008 kvar=0.370023806178 Phases=2

New Load.uclvl45525 conn=wye bus1=uclv45525 kV=0.48 Vminpu=0.95 Vmaxpu=1.05 model=1 kW=156.362 kvar=75.7295729567 Phases=3

New Load.uclvl45788 conn=wye bus1=uclv45788.1.2 kV=0.240178 Vminpu=0.95 Vmaxpu=1.05 model=1 kW=2.74003 kvar=1.33015976772 Phases=2

New Load.uclvl63019 conn=wye bus1=uclv63019.1.2 kV=0.240178 Vminpu=0.95 Vmaxpu=1.05 model=1 kW=16.1702 kvar=7.83158529965 Phases=2

New Load.uclvl10033 conn=wye bus1=uclv10033.1.2 kV=0.240178 Vminpu=0.95 Vmaxpu=1.05 model=1 kW=11.4001 kvar=5.52132042736 Phases=2

New Load.uclvl10032 conn=wye bus1=uclv10032 kV=0.48 Vminpu=0.95 Vmaxpu=1.05 model=1 kW=95.241 kvar=46.1273215869 Phases=3

New Load.uclvl10031 conn=wye bus1=uclv10031.1.2 kV=0.240178 Vminpu=0.95 Vmaxpu=1.05 model=1 kW=4.36004 kvar=2.11042870351 Phases=2

New Load.uclvl10030 conn=wye bus1=uclv10030 kV=0.48 Vminpu=0.95 Vmaxpu=1.05 model=1 kW=24.8002 kvar=12.0112850644 Phases=3

New Load.uclvl52125 conn=wye bus1=uclv52125.1.2 kV=0.240178 Vminpu=0.95 Vmaxpu=1.05 model=1 kW=8.13008 kvar=3.93987984568 Phases=2

New Load.uclvl10034 conn=wye bus1=uclv10034.1.2 kV=0.240178 Vminpu=0.95 Vmaxpu=1.05 model=1 kW=15.4502 kvar=7.4784968842 Phases=2

New Load.uclvl39231 conn=wye bus1=uclv39231 kV=0.48 Vminpu=0.95 Vmaxpu=1.05 model=1 kW=60.0806 kvar=29.0983626519 Phases=3

New Load.uclvl37231 conn=wye bus1=uclv37231 kV=0.48 Vminpu=0.95 Vmaxpu=1.05 model=1 kW=46.2405 kvar=22.3952962888 Phases=3

New Load.uclvl42950 conn=wye bus1=uclv42950.1.2 kV=0.240178 Vminpu=0.95 Vmaxpu=1.05 model=1 kW=9.8101 kvar=4.75124828067 Phases=2

New Load.uclvl53832 conn=wye bus1=uclv53832.1.2 kV=0.240178 Vminpu=0.95 Vmaxpu=1.05 model=1 kW=2.74003 kvar=1.33015976772 Phases=2

New Load.uclvl56498 conn=wye bus1=uclv56498.1.2 kV=0.240178 Vminpu=0.95 Vmaxpu=1.05 model=1 kW=2.74003 kvar=1.33015976772 Phases=2

New Load.uclvl56259 conn=wye bus1=uclv56259.1.2 kV=0.240178 Vminpu=0.95 Vmaxpu=1.05 model=1 kW=2.74003 kvar=1.33015976772 Phases=2

New Load.uclvl29959 conn=wye bus1=uclv29959.1.2 kV=0.240178 Vminpu=0.95 Vmaxpu=1.05 model=1 kW=0.760008 kvar=0.370023806178 Phases=2

New Load.ucmvl122 conn=wye bus1=ucmv122 kV=12.47 Vminpu=0.95 Vmaxpu=1.05 model=1 kW=1495.69 kvar=724.395728985 Phases=3

New Load.uclvl61374 conn=wye bus1=uclv61374 kV=0.48 Vminpu=0.95 Vmaxpu=1.05 model=1 kW=28.5803 kvar=13.8420710529 Phases=3

New Load.ucmvl124 conn=wye bus1=ucmv124 kV=12.47 Vminpu=0.95 Vmaxpu=1.05 model=1 kW=1299.29 kvar=629.274867595 Phases=3

New Load.uclvl45875 conn=wye bus1=uclv45875.1.2 kV=0.240178 Vminpu=0.95 Vmaxpu=1.05 model=1 kW=1.66002 kvar=0.800219242954 Phases=2

New Load.uclvl29953 conn=wye bus1=uclv29953 kV=0.48 Vminpu=0.95 Vmaxpu=1.05 model=1 kW=37.2404 kvar=18.036348913 Phases=3

New Load.uclvl7768 conn=wye bus1=uclv7768.1.2 kV=0.240178 Vminpu=0.95 Vmaxpu=1.05 model=1 kW=2.74003 kvar=1.33015976772 Phases=2

New Load.uclvl22088 conn=wye bus1=uclv22088 kV=0.48 Vminpu=0.95 Vmaxpu=1.05 model=1 kW=18.0402 kvar=8.74237650701 Phases=3

New Load.uclvl39981 conn=wye bus1=uclv39981 kV=0.48 Vminpu=0.95 Vmaxpu=1.05 model=1 kW=18.0802 kvar=8.76176071895 Phases=3

New Load.uclvl22241 conn=wye bus1=uclv22241.1.2 kV=0.240178 Vminpu=0.95 Vmaxpu=1.05 model=1 kW=9.8801 kvar=4.79074609049 Phases=2

New Load.uclvl11324 conn=wye bus1=uclv11324.1.2 kV=0.240178 Vminpu=0.95 Vmaxpu=1.05 model=1 kW=2.74003 kvar=1.33015976772 Phases=2

New Load.uclvl11325 conn=wye bus1=uclv11326.1.2 kV=0.240178 Vminpu=0.95 Vmaxpu=1.05 model=1 kW=2.74003 kvar=1.33015976772 Phases=2

New Load.uclvl11326 conn=wye bus1=uclv11326.1.2 kV=0.240178 Vminpu=0.95 Vmaxpu=1.05 model=1 kW=2.74003 kvar=1.33015976772 Phases=2

New Load.uclvl11327 conn=wye bus1=uclv11327.1.2 kV=0.240178 Vminpu=0.95 Vmaxpu=1.05 model=1 kW=1.66002 kvar=0.800219242954 Phases=2

New Load.uclvl11320 conn=wye bus1=uclv11320.1.2 kV=0.240178 Vminpu=0.95 Vmaxpu=1.05 model=1 kW=2.74003 kvar=1.33015976772 Phases=2

New Load.uclvl11321 conn=wye bus1=uclv11322.1.2 kV=0.240178 Vminpu=0.95 Vmaxpu=1.05 model=1 kW=0.760008 kvar=0.370023806178 Phases=2

New Load.uclvl11322 conn=wye bus1=uclv11322.1.2 kV=0.240178 Vminpu=0.95 Vmaxpu=1.05 model=1 kW=0.760008 kvar=0.370023806178 Phases=2

New Load.uclvl11323 conn=wye bus1=uclv11323.1.2 kV=0.240178 Vminpu=0.95 Vmaxpu=1.05 model=1 kW=2.74003 kvar=1.33015976772 Phases=2

New Load.uclvl15317 conn=wye bus1=uclv15317 kV=0.48 Vminpu=0.95 Vmaxpu=1.05 model=1 kW=53.1605 kvar=25.7468052542 Phases=3

New Load.uclvl55873 conn=wye bus1=uclv55873.1.2 kV=0.240178 Vminpu=0.95 Vmaxpu=1.05 model=1 kW=8.13008 kvar=3.93987984568 Phases=2

New Load.uclvl11328 conn=wye bus1=uclv11328.1.2 kV=0.240178 Vminpu=0.95 Vmaxpu=1.05 model=1 kW=0.760008 kvar=0.370023806178 Phases=2

New Load.uclvl11329 conn=wye bus1=uclv11329.1.2 kV=0.240178 Vminpu=0.95 Vmaxpu=1.05 model=1 kW=1.66002 kvar=0.800219242954 Phases=2

New Load.uclvl21208 conn=wye bus1=uclv21208.1.2 kV=0.240178 Vminpu=0.95 Vmaxpu=1.05 model=1 kW=1.66002 kvar=0.800219242954 Phases=2

New Load.uclvl21209 conn=wye bus1=uclv21209.1.2 kV=0.240178 Vminpu=0.95 Vmaxpu=1.05 model=1 kW=1.66002 kvar=0.800219242954 Phases=2

New Load.uclvl21204 conn=wye bus1=uclv21204.1.2 kV=0.240178 Vminpu=0.95 Vmaxpu=1.05 model=1 kW=1.66002 kvar=0.800219242954 Phases=2

New Load.uclvl21205 conn=wye bus1=uclv21205.1.2 kV=0.240178 Vminpu=0.95 Vmaxpu=1.05 model=1 kW=1.66002 kvar=0.800219242954 Phases=2

New Load.uclvl21206 conn=wye bus1=uclv21206.1.2 kV=0.240178 Vminpu=0.95 Vmaxpu=1.05 model=1 kW=1.66002 kvar=0.800219242954 Phases=2

New Load.uclvl21207 conn=wye bus1=uclv21206.1.2 kV=0.240178 Vminpu=0.95 Vmaxpu=1.05 model=1 kW=1.66002 kvar=0.800219242954 Phases=2

New Load.uclvl21200 conn=wye bus1=uclv21200.1.2 kV=0.240178 Vminpu=0.95 Vmaxpu=1.05 model=1 kW=1.66002 kvar=0.800219242954 Phases=2

New Load.uclvl21201 conn=wye bus1=uclv21201.1.2 kV=0.240178 Vminpu=0.95 Vmaxpu=1.05 model=1 kW=1.66002 kvar=0.800219242954 Phases=2

New Load.uclvl21202 conn=wye bus1=uclv21202.1.2 kV=0.240178 Vminpu=0.95 Vmaxpu=1.05 model=1 kW=1.66002 kvar=0.800219242954 Phases=2

New Load.uclvl21203 conn=wye bus1=uclv21202.1.2 kV=0.240178 Vminpu=0.95 Vmaxpu=1.05 model=1 kW=1.66002 kvar=0.800219242954 Phases=2

New Load.uclvl21198 conn=wye bus1=uclv21199.1.2 kV=0.240178 Vminpu=0.95 Vmaxpu=1.05 model=1 kW=1.66002 kvar=0.800219242954 Phases=2

New Load.uclvl21199 conn=wye bus1=uclv21199.1.2 kV=0.240178 Vminpu=0.95 Vmaxpu=1.05 model=1 kW=1.66002 kvar=0.800219242954 Phases=2

New Load.uclvl40778 conn=wye bus1=uclv40778.1.2 kV=0.240178 Vminpu=0.95 Vmaxpu=1.05 model=1 kW=2.28002 kvar=1.09973970587 Phases=2

New Load.uclvl21194 conn=wye bus1=uclv21194.1.2 kV=0.240178 Vminpu=0.95 Vmaxpu=1.05 model=1 kW=1.66002 kvar=0.800219242954 Phases=2

New Load.uclvl21195 conn=wye bus1=uclv21195.1.2 kV=0.240178 Vminpu=0.95 Vmaxpu=1.05 model=1 kW=1.66002 kvar=0.800219242954 Phases=2

New Load.uclvl21196 conn=wye bus1=uclv21197.1.2 kV=0.240178 Vminpu=0.95 Vmaxpu=1.05 model=1 kW=1.66002 kvar=0.800219242954 Phases=2

New Load.uclvl21197 conn=wye bus1=uclv21197.1.2 kV=0.240178 Vminpu=0.95 Vmaxpu=1.05 model=1 kW=1.66002 kvar=0.800219242954 Phases=2

New Load.uclvl21190 conn=wye bus1=uclv21190.1.2 kV=0.240178 Vminpu=0.95 Vmaxpu=1.05 model=1 kW=1.66002 kvar=0.800219242954 Phases=2

New Load.uclvl21191 conn=wye bus1=uclv21192.1.2 kV=0.240178 Vminpu=0.95 Vmaxpu=1.05 model=1 kW=1.66002 kvar=0.800219242954 Phases=2

New Load.uclvl21192 conn=wye bus1=uclv21192.1.2 kV=0.240178 Vminpu=0.95 Vmaxpu=1.05 model=1 kW=1.66002 kvar=0.800219242954 Phases=2

New Load.uclvl21193 conn=wye bus1=uclv21193.1.2 kV=0.240178 Vminpu=0.95 Vmaxpu=1.05 model=1 kW=2.74003 kvar=1.33015976772 Phases=2

New Load.uclvl29393 conn=wye bus1=uclv29393.1.2 kV=0.240178 Vminpu=0.95 Vmaxpu=1.05 model=1 kW=0.380004 kvar=0.180043018037 Phases=2

New Load.uclvl29395 conn=wye bus1=uclv29395.1.2 kV=0.240178 Vminpu=0.95 Vmaxpu=1.05 model=1 kW=8.13008 kvar=3.93987984568 Phases=2

New Load.uclvl30263 conn=wye bus1=uclv30263 kV=0.48 Vminpu=0.95 Vmaxpu=1.05 model=1 kW=186.712 kvar=90.4287488385 Phases=3

New Load.uclvl24850 conn=wye bus1=uclv24850.1.2 kV=0.240178 Vminpu=0.95 Vmaxpu=1.05 model=1 kW=0.460005 kvar=0.220047220966 Phases=2

New Load.uclvl49444 conn=wye bus1=uclv49444 kV=0.48 Vminpu=0.95 Vmaxpu=1.05 model=1 kW=28.5803 kvar=13.8420710529 Phases=3

New Load.uclvl29100 conn=wye bus1=uclv29100.1.2 kV=0.240178 Vminpu=0.95 Vmaxpu=1.05 model=1 kW=7.02007 kvar=3.39997507851 Phases=2

New Load.uclvl53055 conn=wye bus1=uclv53055.1.2 kV=0.240178 Vminpu=0.95 Vmaxpu=1.05 model=1 kW=16.4102 kvar=7.94782260481 Phases=2

New Load.uclvl45165 conn=wye bus1=uclv45165.1.2 kV=0.240178 Vminpu=0.95 Vmaxpu=1.05 model=1 kW=2.74003 kvar=1.33015976772 Phases=2

New Load.uclvl58166 conn=wye bus1=uclv58166.1.2 kV=0.240178 Vminpu=0.95 Vmaxpu=1.05 model=1 kW=0.760008 kvar=0.370023806178 Phases=2

New Load.uclvl30615 conn=wye bus1=uclv30615 kV=0.48 Vminpu=0.95 Vmaxpu=1.05 model=1 kW=20.0102 kvar=9.69138218223 Phases=3

New Load.uclvl52158 conn=wye bus1=uclv52158 kV=0.48 Vminpu=0.95 Vmaxpu=1.05 model=1 kW=43.5604 kvar=21.0972646156 Phases=3

New Load.uclvl37871 conn=wye bus1=uclv37871.1.2 kV=0.240178 Vminpu=0.95 Vmaxpu=1.05 model=1 kW=8.40008 kvar=4.07072327629 Phases=2

New Load.uclvl29375 conn=wye bus1=uclv29375.1.2 kV=0.240178 Vminpu=0.95 Vmaxpu=1.05 model=1 kW=2.74003 kvar=1.33015976772 Phases=2

New Load.uclvl29371 conn=wye bus1=uclv29371.1.2 kV=0.240178 Vminpu=0.95 Vmaxpu=1.05 model=1 kW=6.37006 kvar=3.09057139326 Phases=2

New Load.uclvl25452 conn=wye bus1=uclv25452 kV=0.48 Vminpu=0.95 Vmaxpu=1.05 model=1 kW=61.2806 kvar=29.6795491777 Phases=3

New Load.uclvl8208 conn=wye bus1=uclv8208 kV=0.48 Vminpu=0.95 Vmaxpu=1.05 model=1 kW=128.431 kvar=62.2019722464 Phases=3

New Load.uclvl8209 conn=wye bus1=uclv8209 kV=0.48 Vminpu=0.95 Vmaxpu=1.05 model=1 kW=128.431 kvar=62.2019722464 Phases=3

New Load.uclvl34767 conn=wye bus1=uclv34767 kV=0.48 Vminpu=0.95 Vmaxpu=1.05 model=1 kW=60.4006 kvar=29.2533457255 Phases=3

New Load.uclvl53789 conn=wye bus1=uclv53789.1.2 kV=0.240178 Vminpu=0.95 Vmaxpu=1.05 model=1 kW=1.66002 kvar=0.800219242954 Phases=2

New Load.uclvl8200 conn=wye bus1=uclv8200.1.2 kV=0.240178 Vminpu=0.95 Vmaxpu=1.05 model=1 kW=9.12009 kvar=4.41964393731 Phases=2

New Load.uclvl8201 conn=wye bus1=uclv8201.1.2 kV=0.240178 Vminpu=0.95 Vmaxpu=1.05 model=1 kW=0.380004 kvar=0.190030879865 Phases=2

New Load.uclvl8202 conn=wye bus1=uclv8202.1.2 kV=0.240178 Vminpu=0.95 Vmaxpu=1.05 model=1 kW=2.74003 kvar=1.33015976772 Phases=2

New Load.uclvl8203 conn=wye bus1=uclv8203.1.2 kV=0.240178 Vminpu=0.95 Vmaxpu=1.05 model=1 kW=1.66002 kvar=0.800219242954 Phases=2

New Load.uclvl8204 conn=wye bus1=uclv8204.1.2 kV=0.240178 Vminpu=0.95 Vmaxpu=1.05 model=1 kW=0.760008 kvar=0.370023806178 Phases=2

New Load.uclvl8205 conn=wye bus1=uclv8205.1.2 kV=0.240178 Vminpu=0.95 Vmaxpu=1.05 model=1 kW=1.66002 kvar=0.800219242954 Phases=2

New Load.uclvl8206 conn=wye bus1=uclv8206 kV=0.48 Vminpu=0.95 Vmaxpu=1.05 model=1 kW=128.431 kvar=62.2019722464 Phases=3

New Load.uclvl8207 conn=wye bus1=uclv8207 kV=0.48 Vminpu=0.95 Vmaxpu=1.05 model=1 kW=128.431 kvar=62.2019722464 Phases=3

New Load.uclvl18552 conn=wye bus1=uclv18552.1.2 kV=0.240178 Vminpu=0.95 Vmaxpu=1.05 model=1 kW=7.60008 kvar=3.68088674254 Phases=2

New Load.uclvl36946 conn=wye bus1=uclv36946 kV=0.48 Vminpu=0.95 Vmaxpu=1.05 model=1 kW=297.923 kvar=144.29069444 Phases=3

New Load.uclvl16684 conn=wye bus1=uclv16684.1.2 kV=0.240178 Vminpu=0.95 Vmaxpu=1.05 model=1 kW=6.20006 kvar=2.99931314746 Phases=2

New Load.uclvl53894 conn=wye bus1=uclv53894.1.2 kV=0.240178 Vminpu=0.95 Vmaxpu=1.05 model=1 kW=2.74003 kvar=1.33015976772 Phases=2

New Load.uclvl36948 conn=wye bus1=uclv36948.1.2 kV=0.240178 Vminpu=0.95 Vmaxpu=1.05 model=1 kW=17.2802 kvar=8.36918283602 Phases=2

New Load.uclvl58381 conn=wye bus1=uclv58381.1.2 kV=0.240178 Vminpu=0.95 Vmaxpu=1.05 model=1 kW=2.74003 kvar=1.33015976772 Phases=2

New Load.uclvl41789 conn=wye bus1=uclv41789 kV=0.48 Vminpu=0.95 Vmaxpu=1.05 model=1 kW=270.883 kvar=131.194624725 Phases=3

New Load.uclvl49202 conn=wye bus1=uclv49202.1.2 kV=0.240178 Vminpu=0.95 Vmaxpu=1.05 model=1 kW=2.74003 kvar=1.33015976772 Phases=2

New Load.uclvl35360 conn=wye bus1=uclv35360 kV=0.48 Vminpu=0.95 Vmaxpu=1.05 model=1 kW=33.8403 kvar=16.3896053243 Phases=3

New Load.uclvl58897 conn=wye bus1=uclv58897 kV=0.48 Vminpu=0.95 Vmaxpu=1.05 model=1 kW=77.0908 kvar=37.3367785196 Phases=3

New Load.uclvl37552 conn=wye bus1=uclv37552.1.2 kV=0.240178 Vminpu=0.95 Vmaxpu=1.05 model=1 kW=2.74003 kvar=1.33015976772 Phases=2

New Load.uclvl25528 conn=wye bus1=uclv25528 kV=0.48 Vminpu=0.95 Vmaxpu=1.05 model=1 kW=186.712 kvar=90.4287488385 Phases=3

New Load.uclvl31246 conn=wye bus1=uclv31246 kV=0.48 Vminpu=0.95 Vmaxpu=1.05 model=1 kW=75.2508 kvar=36.4456258467 Phases=3

New Load.uclvl35567 conn=wye bus1=uclv35567.1.2 kV=0.240178 Vminpu=0.95 Vmaxpu=1.05 model=1 kW=8.13008 kvar=3.93987984568 Phases=2

New Load.uclvl42788 conn=wye bus1=uclv42788.1.2 kV=0.240178 Vminpu=0.95 Vmaxpu=1.05 model=1 kW=9.5201 kvar=4.61079487027 Phases=2

New Load.uclvl50561 conn=wye bus1=uclv50561.1.2 kV=0.240178 Vminpu=0.95 Vmaxpu=1.05 model=1 kW=11.0801 kvar=5.36947516853 Phases=2

New Load.uclvl35145 conn=wye bus1=uclv35145.1.2 kV=0.240178 Vminpu=0.95 Vmaxpu=1.05 model=1 kW=2.74003 kvar=1.33015976772 Phases=2

New Load.uclvl19373 conn=wye bus1=uclv19373.1.2 kV=0.240178 Vminpu=0.95 Vmaxpu=1.05 model=1 kW=1.66002 kvar=0.800219242954 Phases=2

New Load.uclvl19372 conn=wye bus1=uclv19372.1.2 kV=0.240178 Vminpu=0.95 Vmaxpu=1.05 model=1 kW=1.66002 kvar=0.800219242954 Phases=2

New Load.uclvl19371 conn=wye bus1=uclv19371.1.2 kV=0.240178 Vminpu=0.95 Vmaxpu=1.05 model=1 kW=0.760008 kvar=0.370023806178 Phases=2

New Load.uclvl19370 conn=wye bus1=uclv19370.1.2 kV=0.240178 Vminpu=0.95 Vmaxpu=1.05 model=1 kW=1.66002 kvar=0.800219242954 Phases=2

New Load.uclvl19377 conn=wye bus1=uclv19377.1.2 kV=0.240178 Vminpu=0.95 Vmaxpu=1.05 model=1 kW=0.760008 kvar=0.370023806178 Phases=2

New Load.uclvl19376 conn=wye bus1=uclv19376.1.2 kV=0.240178 Vminpu=0.95 Vmaxpu=1.05 model=1 kW=0.760008 kvar=0.370023806178 Phases=2

New Load.uclvl19375 conn=wye bus1=uclv19375.1.2 kV=0.240178 Vminpu=0.95 Vmaxpu=1.05 model=1 kW=0.760008 kvar=0.370023806178 Phases=2

New Load.uclvl19374 conn=wye bus1=uclv19374.1.2 kV=0.240178 Vminpu=0.95 Vmaxpu=1.05 model=1 kW=0.760008 kvar=0.370023806178 Phases=2

New Load.uclvl19379 conn=wye bus1=uclv19379.1.2 kV=0.240178 Vminpu=0.95 Vmaxpu=1.05 model=1 kW=1.66002 kvar=0.800219242954 Phases=2

New Load.uclvl19378 conn=wye bus1=uclv19377.1.2 kV=0.240178 Vminpu=0.95 Vmaxpu=1.05 model=1 kW=0.760008 kvar=0.370023806178 Phases=2

New Load.uclvl41678 conn=wye bus1=uclv41678.1.2 kV=0.240178 Vminpu=0.95 Vmaxpu=1.05 model=1 kW=0.760008 kvar=0.370023806178 Phases=2

New Load.uclvl36088 conn=wye bus1=uclv36088.1.2 kV=0.240178 Vminpu=0.95 Vmaxpu=1.05 model=1 kW=2.74003 kvar=1.33015976772 Phases=2

New Load.uclvl26885 conn=wye bus1=uclv26885.1.2 kV=0.240178 Vminpu=0.95 Vmaxpu=1.05 model=1 kW=17.3602 kvar=8.40792860441 Phases=2

New Load.uclvl41094 conn=wye bus1=uclv41094 kV=0.48 Vminpu=0.95 Vmaxpu=1.05 model=1 kW=213.962 kvar=103.626526195 Phases=3

New Load.uclvl44096 conn=wye bus1=uclv44096 kV=0.48 Vminpu=0.95 Vmaxpu=1.05 model=1 kW=28.5803 kvar=13.8420710529 Phases=3

New Load.uclvl6879 conn=wye bus1=uclv6879.1.2 kV=0.240178 Vminpu=0.95 Vmaxpu=1.05 model=1 kW=0.760008 kvar=0.370023806178 Phases=2

New Load.uclvl6878 conn=wye bus1=uclv6878.1.2 kV=0.240178 Vminpu=0.95 Vmaxpu=1.05 model=1 kW=0.760008 kvar=0.370023806178 Phases=2

New Load.uclvl18607 conn=wye bus1=uclv18607.1.2 kV=0.240178 Vminpu=0.95 Vmaxpu=1.05 model=1 kW=2.28002 kvar=1.09973970587 Phases=2

New Load.uclvl31015 conn=wye bus1=uclv31015.1.2 kV=0.240178 Vminpu=0.95 Vmaxpu=1.05 model=1 kW=3.56004 kvar=1.72017080078 Phases=2

New Load.uclvl6875 conn=wye bus1=uclv6875.1.2 kV=0.240178 Vminpu=0.95 Vmaxpu=1.05 model=1 kW=0.760008 kvar=0.370023806178 Phases=2

New Load.uclvl6874 conn=wye bus1=uclv6874.1.2 kV=0.240178 Vminpu=0.95 Vmaxpu=1.05 model=1 kW=0.760008 kvar=0.370023806178 Phases=2

New Load.uclvl6877 conn=wye bus1=uclv6877.1.2 kV=0.240178 Vminpu=0.95 Vmaxpu=1.05 model=1 kW=0.760008 kvar=0.370023806178 Phases=2

New Load.uclvl6876 conn=wye bus1=uclv6876.1.2 kV=0.240178 Vminpu=0.95 Vmaxpu=1.05 model=1 kW=0.760008 kvar=0.370023806178 Phases=2

New Load.uclvl14666 conn=wye bus1=uclv14666.1.2 kV=0.240178 Vminpu=0.95 Vmaxpu=1.05 model=1 kW=7.60008 kvar=3.68088674254 Phases=2

New Load.uclvl34381 conn=wye bus1=uclv34381 kV=0.48 Vminpu=0.95 Vmaxpu=1.05 model=1 kW=28.6403 kvar=13.8711303792 Phases=3

New Load.uclvl9522 conn=wye bus1=uclv9522.1.2 kV=0.240178 Vminpu=0.95 Vmaxpu=1.05 model=1 kW=1.66002 kvar=0.800219242954 Phases=2

New Load.uclvl9523 conn=wye bus1=uclv9522.1.2 kV=0.240178 Vminpu=0.95 Vmaxpu=1.05 model=1 kW=2.74003 kvar=1.33015976772 Phases=2

New Load.uclvl9520 conn=wye bus1=uclv9520.1.2 kV=0.240178 Vminpu=0.95 Vmaxpu=1.05 model=1 kW=2.74003 kvar=1.33015976772 Phases=2

New Load.uclvl9521 conn=wye bus1=uclv9521.1.2 kV=0.240178 Vminpu=0.95 Vmaxpu=1.05 model=1 kW=2.74003 kvar=1.33015976772 Phases=2

New Load.uclvl9526 conn=wye bus1=uclv9526.1.2 kV=0.240178 Vminpu=0.95 Vmaxpu=1.05 model=1 kW=2.74003 kvar=1.33015976772 Phases=2

New Load.uclvl9527 conn=wye bus1=uclv9527.1.2 kV=0.240178 Vminpu=0.95 Vmaxpu=1.05 model=1 kW=2.74003 kvar=1.33015976772 Phases=2

New Load.uclvl9524 conn=wye bus1=uclv9524.1.2 kV=0.240178 Vminpu=0.95 Vmaxpu=1.05 model=1 kW=2.74003 kvar=1.33015976772 Phases=2

New Load.uclvl9525 conn=wye bus1=uclv9525.1.2 kV=0.240178 Vminpu=0.95 Vmaxpu=1.05 model=1 kW=2.74003 kvar=1.33015976772 Phases=2

New Load.uclvl35498 conn=wye bus1=uclv35498.1.2 kV=0.240178 Vminpu=0.95 Vmaxpu=1.05 model=1 kW=1.66002 kvar=0.800219242954 Phases=2

New Load.uclvl9528 conn=wye bus1=uclv9528.1.2 kV=0.240178 Vminpu=0.95 Vmaxpu=1.05 model=1 kW=2.74003 kvar=1.33015976772 Phases=2

New Load.uclvl9529 conn=wye bus1=uclv9530.1.2 kV=0.240178 Vminpu=0.95 Vmaxpu=1.05 model=1 kW=2.74003 kvar=1.33015976772 Phases=2

New Load.uclvl63517 conn=wye bus1=uclv63517.1.2 kV=0.240178 Vminpu=0.95 Vmaxpu=1.05 model=1 kW=2.74003 kvar=1.33015976772 Phases=2

New Load.uclvl14525 conn=wye bus1=uclv14525.1.2 kV=0.240178 Vminpu=0.95 Vmaxpu=1.05 model=1 kW=8.13008 kvar=3.93987984568 Phases=2

New Load.uclvl44603 conn=wye bus1=uclv44603.1.2 kV=0.240178 Vminpu=0.95 Vmaxpu=1.05 model=1 kW=8.13008 kvar=3.93987984568 Phases=2

New Load.uclvl28334 conn=wye bus1=uclv28334.1.2 kV=0.240178 Vminpu=0.95 Vmaxpu=1.05 model=1 kW=2.88003 kvar=1.38996422877 Phases=2

New Load.uclvl48427 conn=wye bus1=uclv48427.1.2 kV=0.240178 Vminpu=0.95 Vmaxpu=1.05 model=1 kW=6.72007 kvar=3.25087084688 Phases=2

New Load.uclvl47904 conn=wye bus1=uclv47904.1.2 kV=0.240178 Vminpu=0.95 Vmaxpu=1.05 model=1 kW=2.74003 kvar=1.33015976772 Phases=2

New Load.uclvl12787 conn=wye bus1=uclv12787 kV=0.48 Vminpu=0.95 Vmaxpu=1.05 model=1 kW=28.5803 kvar=13.8420710529 Phases=3

New Load.uclvl12786 conn=wye bus1=uclv12786 kV=0.48 Vminpu=0.95 Vmaxpu=1.05 model=1 kW=128.431 kvar=62.2019722464 Phases=3

New Load.uclvl12785 conn=wye bus1=uclv12785.1.2 kV=0.240178 Vminpu=0.95 Vmaxpu=1.05 model=1 kW=6.02006 kvar=2.91053102435 Phases=2

New Load.uclvl12784 conn=wye bus1=uclv12784 kV=0.48 Vminpu=0.95 Vmaxpu=1.05 model=1 kW=28.5803 kvar=13.8420710529 Phases=3

New Load.uclvl12783 conn=wye bus1=uclv12783 kV=0.48 Vminpu=0.95 Vmaxpu=1.05 model=1 kW=128.431 kvar=62.2019722464 Phases=3

New Load.uclvl12782 conn=wye bus1=uclv12782 kV=0.48 Vminpu=0.95 Vmaxpu=1.05 model=1 kW=28.5803 kvar=13.8420710529 Phases=3

New Load.uclvl12781 conn=wye bus1=uclv12781 kV=0.48 Vminpu=0.95 Vmaxpu=1.05 model=1 kW=128.431 kvar=62.2019722464 Phases=3

New Load.uclvl12780 conn=wye bus1=uclv12780 kV=0.48 Vminpu=0.95 Vmaxpu=1.05 model=1 kW=128.431 kvar=62.2019722464 Phases=3

New Load.uclvl55914 conn=wye bus1=uclv55914.1.2 kV=0.240178 Vminpu=0.95 Vmaxpu=1.05 model=1 kW=11.5101 kvar=5.57133545111 Phases=2

New Load.uclvl31931 conn=wye bus1=uclv31931 kV=0.48 Vminpu=0.95 Vmaxpu=1.05 model=1 kW=28.5803 kvar=13.8420710529 Phases=3

New Load.uclvl12789 conn=wye bus1=uclv12789 kV=0.48 Vminpu=0.95 Vmaxpu=1.05 model=1 kW=28.5803 kvar=13.8420710529 Phases=3

New Load.uclvl12788 conn=wye bus1=uclv12788 kV=0.48 Vminpu=0.95 Vmaxpu=1.05 model=1 kW=128.431 kvar=62.2019722464 Phases=3

New Load.uclvl29532 conn=wye bus1=uclv29532 kV=0.48 Vminpu=0.95 Vmaxpu=1.05 model=1 kW=84.5608 kvar=40.9546646428 Phases=3

New Load.uclvl44609 conn=wye bus1=uclv44609 kV=0.48 Vminpu=0.95 Vmaxpu=1.05 model=1 kW=20.7202 kvar=10.0411187071 Phases=3

New Load.uclvl35140 conn=wye bus1=uclv35140.1.2 kV=0.240178 Vminpu=0.95 Vmaxpu=1.05 model=1 kW=5.32005 kvar=2.57963064531 Phases=2

New Load.uclvl31936 conn=wye bus1=uclv31936.1.2 kV=0.240178 Vminpu=0.95 Vmaxpu=1.05 model=1 kW=1.66002 kvar=0.800219242954 Phases=2

New Load.uclvl39692 conn=wye bus1=uclv39692.1.2 kV=0.240178 Vminpu=0.95 Vmaxpu=1.05 model=1 kW=16.1102 kvar=7.79796251853 Phases=2

New Load.uclvl28756 conn=wye bus1=uclv28756 kV=0.48 Vminpu=0.95 Vmaxpu=1.05 model=1 kW=27.6503 kvar=13.3916514954 Phases=3

New Load.uclvl47862 conn=wye bus1=uclv47862.1.2 kV=0.240178 Vminpu=0.95 Vmaxpu=1.05 model=1 kW=2.74003 kvar=1.33015976772 Phases=2

New Load.uclvl9638 conn=wye bus1=uclv9638.1.2 kV=0.240178 Vminpu=0.95 Vmaxpu=1.05 model=1 kW=0.760008 kvar=0.370023806178 Phases=2

New Load.uclvl9639 conn=wye bus1=uclv9639.1.2 kV=0.240178 Vminpu=0.95 Vmaxpu=1.05 model=1 kW=1.66002 kvar=0.800219242954 Phases=2

New Load.uclvl9636 conn=wye bus1=uclv9636.1.2 kV=0.240178 Vminpu=0.95 Vmaxpu=1.05 model=1 kW=0.760008 kvar=0.370023806178 Phases=2

New Load.uclvl9637 conn=wye bus1=uclv9637.1.2 kV=0.240178 Vminpu=0.95 Vmaxpu=1.05 model=1 kW=0.760008 kvar=0.370023806178 Phases=2

New Load.uclvl9634 conn=wye bus1=uclv9634.1.2 kV=0.240178 Vminpu=0.95 Vmaxpu=1.05 model=1 kW=0.760008 kvar=0.370023806178 Phases=2

New Load.uclvl9635 conn=wye bus1=uclv9635.1.2 kV=0.240178 Vminpu=0.95 Vmaxpu=1.05 model=1 kW=1.66002 kvar=0.800219242954 Phases=2

New Load.uclvl9632 conn=wye bus1=uclv9632.1.2 kV=0.240178 Vminpu=0.95 Vmaxpu=1.05 model=1 kW=0.760008 kvar=0.370023806178 Phases=2

New Load.uclvl9633 conn=wye bus1=uclv9632.1.2 kV=0.240178 Vminpu=0.95 Vmaxpu=1.05 model=1 kW=0.760008 kvar=0.370023806178 Phases=2

New Load.uclvl9630 conn=wye bus1=uclv9630.1.2 kV=0.240178 Vminpu=0.95 Vmaxpu=1.05 model=1 kW=0.760008 kvar=0.370023806178 Phases=2

New Load.uclvl9631 conn=wye bus1=uclv9631.1.2 kV=0.240178 Vminpu=0.95 Vmaxpu=1.05 model=1 kW=1.66002 kvar=0.800219242954 Phases=2

New Load.uclvl26611 conn=wye bus1=uclv26611 kV=0.48 Vminpu=0.95 Vmaxpu=1.05 model=1 kW=155.842 kvar=75.4777254621 Phases=3

New Load.uclvl40129 conn=wye bus1=uclv40129.1.2 kV=0.240178 Vminpu=0.95 Vmaxpu=1.05 model=1 kW=2.74003 kvar=1.33015976772 Phases=2

New Load.uclvl26343 conn=wye bus1=uclv26343 kV=0.48 Vminpu=0.95 Vmaxpu=1.05 model=1 kW=122.681 kvar=59.4171201436 Phases=3

New Load.uclvl40125 conn=wye bus1=uclv40125 kV=0.48 Vminpu=0.95 Vmaxpu=1.05 model=1 kW=28.6003 kvar=13.851757495 Phases=3

New Load.uclvl39471 conn=wye bus1=uclv39471 kV=0.48 Vminpu=0.95 Vmaxpu=1.05 model=1 kW=26.1203 kvar=12.650638675 Phases=3

New Load.uclvl40120 conn=wye bus1=uclv40120 kV=0.48 Vminpu=0.95 Vmaxpu=1.05 model=1 kW=63.6806 kvar=30.8419222293 Phases=3

New Load.uclvl7872 conn=wye bus1=uclv7871.1.2 kV=0.240178 Vminpu=0.95 Vmaxpu=1.05 model=1 kW=2.74003 kvar=1.33015976772 Phases=2

New Load.uclvl7873 conn=wye bus1=uclv7873.1.2 kV=0.240178 Vminpu=0.95 Vmaxpu=1.05 model=1 kW=2.74003 kvar=1.33015976772 Phases=2

New Load.uclvl7870 conn=wye bus1=uclv7870.1.2 kV=0.240178 Vminpu=0.95 Vmaxpu=1.05 model=1 kW=2.74003 kvar=1.33015976772 Phases=2

New Load.uclvl7871 conn=wye bus1=uclv7871.1.2 kV=0.240178 Vminpu=0.95 Vmaxpu=1.05 model=1 kW=2.74003 kvar=1.33015976772 Phases=2

New Load.uclvl14235 conn=wye bus1=uclv14235 kV=0.48 Vminpu=0.95 Vmaxpu=1.05 model=1 kW=94.7209 kvar=45.8754256601 Phases=3

New Load.uclvl7877 conn=wye bus1=uclv7877.1.2 kV=0.240178 Vminpu=0.95 Vmaxpu=1.05 model=1 kW=2.74003 kvar=1.33015976772 Phases=2

New Load.uclvl7874 conn=wye bus1=uclv7874.1.2 kV=0.240178 Vminpu=0.95 Vmaxpu=1.05 model=1 kW=2.74003 kvar=1.33015976772 Phases=2

New Load.uclvl7875 conn=wye bus1=uclv7875.1.2 kV=0.240178 Vminpu=0.95 Vmaxpu=1.05 model=1 kW=2.74003 kvar=1.33015976772 Phases=2

New Load.uclvl7878 conn=wye bus1=uclv7878.1.2 kV=0.240178 Vminpu=0.95 Vmaxpu=1.05 model=1 kW=2.74003 kvar=1.33015976772 Phases=2

New Load.uclvl7879 conn=wye bus1=uclv7879.1.2 kV=0.240178 Vminpu=0.95 Vmaxpu=1.05 model=1 kW=1.66002 kvar=0.800219242954 Phases=2

New Load.uclvl48337 conn=wye bus1=uclv48337 kV=0.48 Vminpu=0.95 Vmaxpu=1.05 model=1 kW=162.962 kvar=78.9260988486 Phases=3

New Load.uclvl51671 conn=wye bus1=uclv51671.1.2 kV=0.240178 Vminpu=0.95 Vmaxpu=1.05 model=1 kW=0.760008 kvar=0.370023806178 Phases=2

New Load.uclvl40224 conn=wye bus1=uclv40224 kV=0.48 Vminpu=0.95 Vmaxpu=1.05 model=1 kW=55.3606 kvar=26.8123623171 Phases=3

New Load.uclvl57676 conn=wye bus1=uclv57676.1.2 kV=0.240178 Vminpu=0.95 Vmaxpu=1.05 model=1 kW=2.74003 kvar=1.33015976772 Phases=2

New Load.uclvl45022 conn=wye bus1=uclv45022.1.2 kV=0.240178 Vminpu=0.95 Vmaxpu=1.05 model=1 kW=3.44003 kvar=1.66997788556 Phases=2

New Load.uclvl59704 conn=wye bus1=uclv59704.1.2 kV=0.240178 Vminpu=0.95 Vmaxpu=1.05 model=1 kW=16.1102 kvar=7.79796251853 Phases=2

New Load.uclvl26501 conn=wye bus1=uclv26501 kV=0.48 Vminpu=0.95 Vmaxpu=1.05 model=1 kW=44.2804 kvar=21.4459765311 Phases=3

New Load.uclvl44555 conn=wye bus1=uclv44555 kV=0.48 Vminpu=0.95 Vmaxpu=1.05 model=1 kW=28.5803 kvar=13.8420710529 Phases=3

New Load.uclvl7908 conn=wye bus1=uclv7908.1.2 kV=0.240178 Vminpu=0.95 Vmaxpu=1.05 model=1 kW=1.66002 kvar=0.800219242954 Phases=2

New Load.uclvl7909 conn=wye bus1=uclv7909.1.2 kV=0.240178 Vminpu=0.95 Vmaxpu=1.05 model=1 kW=2.74003 kvar=1.33015976772 Phases=2

New Load.uclvl7906 conn=wye bus1=uclv7906.1.2 kV=0.240178 Vminpu=0.95 Vmaxpu=1.05 model=1 kW=2.74003 kvar=1.33015976772 Phases=2

New Load.uclvl7907 conn=wye bus1=uclv7907.1.2 kV=0.240178 Vminpu=0.95 Vmaxpu=1.05 model=1 kW=1.66002 kvar=0.800219242954 Phases=2

New Load.uclvl7904 conn=wye bus1=uclv7904.1.2 kV=0.240178 Vminpu=0.95 Vmaxpu=1.05 model=1 kW=2.74003 kvar=1.33015976772 Phases=2

New Load.uclvl7905 conn=wye bus1=uclv7905.1.2 kV=0.240178 Vminpu=0.95 Vmaxpu=1.05 model=1 kW=1.66002 kvar=0.800219242954 Phases=2

New Load.uclvl7902 conn=wye bus1=uclv7902.1.2 kV=0.240178 Vminpu=0.95 Vmaxpu=1.05 model=1 kW=2.74003 kvar=1.33015976772 Phases=2

New Load.uclvl7903 conn=wye bus1=uclv7902.1.2 kV=0.240178 Vminpu=0.95 Vmaxpu=1.05 model=1 kW=2.74003 kvar=1.33015976772 Phases=2

New Load.uclvl7900 conn=wye bus1=uclv7901.1.2 kV=0.240178 Vminpu=0.95 Vmaxpu=1.05 model=1 kW=1.66002 kvar=0.800219242954 Phases=2

New Load.uclvl7901 conn=wye bus1=uclv7901.1.2 kV=0.240178 Vminpu=0.95 Vmaxpu=1.05 model=1 kW=1.66002 kvar=0.800219242954 Phases=2

...